Version 4
SHEET 1 2116 680
WIRE 496 -352 256 -352
WIRE 2032 -352 496 -352
WIRE -416 -256 -848 -256
WIRE -368 -256 -416 -256
WIRE -208 -256 -368 -256
WIRE 112 -256 -112 -256
WIRE 496 -256 112 -256
WIRE 1184 -256 496 -256
WIRE 1376 -256 1184 -256
WIRE 1456 -256 1376 -256
WIRE 1536 -256 1456 -256
WIRE 1904 -256 1824 -256
WIRE 2032 -256 2032 -352
WIRE 2032 -256 1904 -256
WIRE 112 -224 112 -256
WIRE 256 -224 256 -352
WIRE 1184 -224 1184 -256
WIRE 1376 -224 1376 -256
WIRE 2032 -224 2032 -256
WIRE -848 -208 -848 -256
WIRE -368 -176 -368 -256
WIRE -320 -176 -368 -176
WIRE -192 -176 -192 -208
WIRE -192 -176 -240 -176
WIRE 1456 -160 1456 -256
WIRE 1536 -160 1456 -160
WIRE 1904 -160 1904 -256
WIRE 1904 -160 1824 -160
WIRE 1184 -128 1184 -144
WIRE 1376 -128 1376 -160
WIRE 2032 -128 2032 -160
WIRE 256 -112 256 -144
WIRE 352 -112 256 -112
WIRE 112 -64 112 -144
WIRE 256 -64 256 -112
WIRE 1680 -48 1680 -96
WIRE -192 32 -192 -176
WIRE -80 32 -192 32
WIRE 112 32 112 0
WIRE 112 32 0 32
WIRE 256 32 256 0
WIRE 256 32 112 32
WIRE 352 32 352 -112
WIRE 496 32 352 32
WIRE 1264 32 496 32
WIRE 256 80 256 32
WIRE 496 80 256 80
WIRE 768 80 496 80
WIRE 768 128 768 80
WIRE 912 144 816 144
WIRE 992 144 912 144
WIRE 992 160 992 144
WIRE 768 224 768 208
WIRE -192 240 -192 32
WIRE -112 320 -144 320
WIRE -80 320 -80 304
WIRE -80 320 -112 320
WIRE 128 320 -80 320
WIRE 512 320 208 320
WIRE 1264 320 512 320
WIRE -80 352 -80 320
WIRE 1264 368 1264 320
WIRE 1376 384 1312 384
WIRE 1376 400 1376 384
WIRE -80 432 -80 416
WIRE 1264 464 1264 448
FLAG -416 -256 V_In
FLAG 496 -256 V_Out
FLAG -192 -176 G1
FLAG 816 192 0
FLAG 768 224 0
FLAG -192 336 0
FLAG -848 -128 0
FLAG -80 432 0
FLAG -80 224 3P3
FLAG 496 32 Ctrl_Out
FLAG 992 240 0
FLAG 912 144 Pressed
FLAG 1680 -48 0
FLAG 496 -352 3P3
FLAG 1376 -128 0
FLAG 2032 -128 0
FLAG 1312 432 0
FLAG 1264 464 0
FLAG 1376 480 0
FLAG 512 320 Keep
FLAG 1376 384 PowerOff
FLAG 496 80 Ctrl_In
FLAG 1184 -128 0
FLAG -112 320 G2
SYMBOL pmos -112 -208 M270
SYMATTR InstName M1
SYMATTR Value AO3401A
SYMATTR Prefix X
SYMBOL nmos -144 240 M0
SYMATTR InstName M2
SYMATTR Value 2N7002
SYMBOL voltage -848 -224 R0
WINDOW 123 0 0 Left 0
WINDOW 39 0 0 Left 0
SYMATTR InstName V1
SYMATTR Value 5
SYMBOL res -224 -192 R90
WINDOW 0 0 56 VBottom 2
WINDOW 3 32 56 VTop 2
SYMATTR InstName R1
SYMATTR Value 100k
SYMBOL res 96 -240 R0
SYMATTR InstName R2
SYMATTR Value 1k
SYMBOL res 16 16 R90
WINDOW 0 0 56 VBottom 2
WINDOW 3 32 56 VTop 2
SYMATTR InstName R3
SYMATTR Value 10k
SYMBOL sw 768 224 R180
SYMATTR InstName S1
SYMATTR Value MySw
SYMBOL res -96 208 R0
SYMATTR InstName R4
SYMATTR Value 100k
SYMBOL cap -96 352 R0
SYMATTR InstName C1
SYMATTR Value 100n
SYMBOL schottky 96 -64 R0
SYMATTR InstName D1
SYMBOL voltage 992 144 R0
WINDOW 3 24 96 Invisible 2
WINDOW 123 0 0 Left 0
WINDOW 39 0 0 Left 0
SYMATTR Value PULSE(0 1 1m 1n 1n 10m)
SYMATTR InstName V3
SYMBOL PowerProducts\\LT3008-3.3 1680 -208 R0
SYMATTR InstName U1
SYMBOL cap 2016 -224 R0
SYMATTR InstName C2
SYMATTR Value 100n
SYMBOL cap 1360 -224 R0
SYMATTR InstName C3
SYMATTR Value 100n
SYMBOL sw 1264 464 R180
SYMATTR InstName S2
SYMATTR Value GPIO
SYMBOL voltage 1376 384 R0
WINDOW 3 24 96 Invisible 2
WINDOW 123 0 0 Left 0
WINDOW 39 0 0 Left 0
SYMATTR Value PULSE(0 1 50m 1n 1n 1s)
SYMATTR InstName V2
SYMBOL schottky 240 -64 R0
SYMATTR InstName D2
SYMBOL res 240 -240 R0
SYMATTR InstName R5
SYMATTR Value 1k
SYMBOL bv 1184 -240 R0
SYMATTR InstName B1
SYMATTR Value P=2.5
SYMBOL res 224 304 R90
WINDOW 0 0 56 VBottom 2
WINDOW 3 32 56 VTop 2
SYMATTR InstName R6
SYMATTR Value 10k
TEXT 1376 144 Left 2 !.ic V(Keep)=0
TEXT 1376 120 Left 2 !.tran 100m
TEXT 1376 168 Left 2 !.model MySw SW(Vt=0.5 Ron=0.1)
TEXT 1424 -488 Left 2 ;Raspberry
TEXT 800 240 Left 2 ;Button
TEXT 1376 192 Left 2 !.model GPIO SW(Vt=0.5 Ron=200)
TEXT 1376 216 Left 2 !.include AO3401A.mod
TEXT 1112 8 Left 2 ;GPIO17
TEXT 1112 -368 Left 2 ;3v3 Power
TEXT 1112 -280 Left 2 ;5v Power
TEXT 1112 296 Left 2 ;GPIO4
TEXT -48 -472 Left 2 ;Cut-Off Circuit
LINE Normal 1088 -464 1872 -464 1
LINE Normal 1088 416 1088 -464 1
LINE Normal 1088 480 1088 480 1
LINE Normal 560 432 560 -448 1
LINE Normal -544 432 -544 -448 1
LINE Normal 560 -448 -544 -448 1
LINE Normal 560 -448 560 -448 1
