Version 4
SHEET 1 1932 680
WIRE 1008 -352 688 -352
WIRE 1840 -352 1008 -352
WIRE -96 -256 -192 -256
WIRE 64 -256 -96 -256
WIRE 432 -256 160 -256
WIRE 1008 -256 432 -256
WIRE 1184 -256 1008 -256
WIRE 1264 -256 1184 -256
WIRE 1344 -256 1264 -256
WIRE 1712 -256 1632 -256
WIRE 1840 -256 1840 -352
WIRE 1840 -256 1712 -256
WIRE 432 -224 432 -256
WIRE 688 -224 688 -352
WIRE 1184 -224 1184 -256
WIRE 1840 -224 1840 -256
WIRE -192 -208 -192 -256
WIRE -96 -176 -96 -256
WIRE -48 -176 -96 -176
WIRE 80 -176 80 -208
WIRE 80 -176 32 -176
WIRE 1264 -160 1264 -256
WIRE 1344 -160 1264 -160
WIRE 1712 -160 1712 -256
WIRE 1712 -160 1632 -160
WIRE 1184 -128 1184 -160
WIRE 1840 -128 1840 -160
WIRE 688 -112 688 -144
WIRE 768 -112 688 -112
WIRE 432 -64 432 -144
WIRE 688 -64 688 -112
WIRE 1488 -48 1488 -96
WIRE 80 32 80 -176
WIRE 240 32 80 32
WIRE 432 32 432 0
WIRE 432 32 320 32
WIRE 688 32 688 0
WIRE 688 32 432 32
WIRE 768 32 768 -112
WIRE 944 32 768 32
WIRE 1264 32 944 32
WIRE 432 80 432 32
WIRE 576 96 480 96
WIRE 624 96 576 96
WIRE 624 112 624 96
WIRE 432 176 432 160
WIRE 80 240 80 32
WIRE 192 320 192 304
WIRE 192 320 128 320
WIRE 944 320 192 320
WIRE 1264 320 944 320
WIRE 192 352 192 320
WIRE 1264 368 1264 320
WIRE 1376 384 1312 384
WIRE 1376 400 1376 384
WIRE 192 432 192 416
WIRE 1264 464 1264 448
FLAG -192 -256 Batt
FLAG 1008 -256 5P0
FLAG 80 -176 G1
FLAG 480 144 0
FLAG 432 176 0
FLAG 80 336 0
FLAG -192 -128 0
FLAG 192 432 0
FLAG 192 224 3P3
FLAG 944 32 GPIO17_Trigger
FLAG 624 192 0
FLAG 576 96 Pressed
FLAG 1488 -48 0
FLAG 1008 -352 3P3
FLAG 1184 -128 0
FLAG 1840 -128 0
FLAG 1312 432 0
FLAG 1264 464 0
FLAG 1376 480 0
FLAG 944 320 GPIO4_PowerOff
FLAG 1376 384 PowerOff
SYMBOL pmos 160 -208 M270
SYMATTR InstName M1
SYMATTR Value AO3401A
SYMATTR Prefix X
SYMBOL nmos 128 240 M0
SYMATTR InstName M2
SYMATTR Value 2N7002
SYMBOL voltage -192 -224 R0
WINDOW 123 0 0 Left 0
WINDOW 39 0 0 Left 0
SYMATTR InstName V1
SYMATTR Value 5
SYMBOL res 48 -192 R90
WINDOW 0 0 56 VBottom 2
WINDOW 3 32 56 VTop 2
SYMATTR InstName R1
SYMATTR Value 100k
SYMBOL res 416 -240 R0
SYMATTR InstName R2
SYMATTR Value 1k
SYMBOL res 336 16 R90
WINDOW 0 0 56 VBottom 2
WINDOW 3 32 56 VTop 2
SYMATTR InstName R3
SYMATTR Value 10k
SYMBOL sw 432 176 R180
SYMATTR InstName S1
SYMATTR Value MySw
SYMBOL res 176 208 R0
SYMATTR InstName R4
SYMATTR Value 1k
SYMBOL cap 176 352 R0
SYMATTR InstName C1
SYMATTR Value 4µ7
SYMBOL schottky 416 -64 R0
SYMATTR InstName D1
SYMBOL voltage 624 96 R0
WINDOW 3 24 96 Invisible 2
WINDOW 123 0 0 Left 0
WINDOW 39 0 0 Left 0
SYMATTR Value PULSE(0 1 1m 1n 1n 10m)
SYMATTR InstName V3
SYMBOL PowerProducts\\LT3008-3.3 1488 -208 R0
SYMATTR InstName U1
SYMBOL cap 1824 -224 R0
SYMATTR InstName C2
SYMATTR Value 100n
SYMBOL cap 1168 -224 R0
SYMATTR InstName C3
SYMATTR Value 100n
SYMBOL sw 1264 464 R180
SYMATTR InstName S2
SYMATTR Value GPIO
SYMBOL voltage 1376 384 R0
WINDOW 3 24 96 Invisible 2
WINDOW 123 0 0 Left 0
WINDOW 39 0 0 Left 0
SYMATTR Value PULSE(0 1 50m 1n 1n 1s)
SYMATTR InstName V2
SYMBOL schottky 672 -64 R0
SYMATTR InstName D2
SYMBOL res 672 -240 R0
SYMATTR InstName R5
SYMATTR Value 1k
TEXT 1376 144 Left 2 !.ic V(GPIO4_PowerOff)=0
TEXT 1376 120 Left 2 !.tran 100m
TEXT 1376 168 Left 2 !.model MySw SW(Vt=0.5 Ron=0.1)
TEXT 1120 -376 Left 2 ;Raspberry
TEXT 496 192 Left 2 ;Button
TEXT 1376 192 Left 2 !.model GPIO SW(Vt=0.5 Ron=200)
TEXT 1376 216 Left 2 !.include AO3401A.mod
LINE Normal 1088 -400 1872 -400 1
LINE Normal 1088 480 1088 -400 1
LINE Normal 1088 480 1088 480 1
